codes.sft: written by SWATdoctR, corresponds to SWAT+Editor v2.1.0 for SWAT+ rev.60.5.4
hyd_hru       hyd_hrulte    plnt          sed           nut           ch_sed        ch_nut        res
y             n             n             n             n             n             n             n
